9824145
  -OEChem-03112503132D

 39 39  0     1  0  0  0  0  0999 V2000
    2.8660   -2.5000    0.0000 O   0  0  0  0  0  0  0  0  0  0  0  0
    6.3301    3.5000    0.0000 N   0  0  0  0  0  0  0  0  0  0  0  0
    5.4641   -2.0000    0.0000 N   0  0  0  0  0  0  0  0  0  0  0  0
    6.3301    2.5000    0.0000 C   0  0  2  0  0  0  0  0  0  0  0  0
    5.4641    2.0000    0.0000 C   0  0  0  0  0  0  0  0  0  0  0  0
    7.1962    2.0000    0.0000 C   0  0  0  0  0  0  0  0  0  0  0  0
    5.4641    1.0000    0.0000 C   0  0  0  0  0  0  0  0  0  0  0  0
    4.5981    0.5000    0.0000 C   0  0  0  0  0  0  0  0  0  0  0  0
    2.8660   -3.5000    0.0000 C   0  0  0  0  0  0  0  0  0  0  0  0
    4.5981   -0.5000    0.0000 C   0  0  0  0  0  0  0  0  0  0  0  0
    7.1962    4.0000    0.0000 C   0  0  0  0  0  0  0  0  0  0  0  0
    3.7320   -2.0000    0.0000 C   0  0  0  0  0  0  0  0  0  0  0  0
    3.7320   -1.0000    0.0000 C   0  0  0  0  0  0  0  0  0  0  0  0
    2.0000   -4.0000    0.0000 C   0  0  0  0  0  0  0  0  0  0  0  0
    3.7320   -4.0000    0.0000 C   0  0  0  0  0  0  0  0  0  0  0  0
    5.4641   -1.0000    0.0000 C   0  0  0  0  0  0  0  0  0  0  0  0
    4.5981   -2.5000    0.0000 C   0  0  0  0  0  0  0  0  0  0  0  0
    6.8671    2.8100    0.0000 H   0  0  0  0  0  0  0  0  0  0  0  0
    5.2520    2.5826    0.0000 H   0  0  0  0  0  0  0  0  0  0  0  0
    4.8535    1.8923    0.0000 H   0  0  0  0  0  0  0  0  0  0  0  0
    6.8862    1.4631    0.0000 H   0  0  0  0  0  0  0  0  0  0  0  0
    7.7331    1.6900    0.0000 H   0  0  0  0  0  0  0  0  0  0  0  0
    7.5062    2.5369    0.0000 H   0  0  0  0  0  0  0  0  0  0  0  0
    5.7932    3.8100    0.0000 H   0  0  0  0  0  0  0  0  0  0  0  0
    6.0010    0.6900    0.0000 H   0  0  0  0  0  0  0  0  0  0  0  0
    3.4030   -3.1900    0.0000 H   0  0  0  0  0  0  0  0  0  0  0  0
    4.0611    0.8100    0.0000 H   0  0  0  0  0  0  0  0  0  0  0  0
    7.5062    3.4631    0.0000 H   0  0  0  0  0  0  0  0  0  0  0  0
    7.7331    4.3100    0.0000 H   0  0  0  0  0  0  0  0  0  0  0  0
    6.8862    4.5369    0.0000 H   0  0  0  0  0  0  0  0  0  0  0  0
    3.1951   -0.6900    0.0000 H   0  0  0  0  0  0  0  0  0  0  0  0
    1.6900   -3.4631    0.0000 H   0  0  0  0  0  0  0  0  0  0  0  0
    1.4631   -4.3100    0.0000 H   0  0  0  0  0  0  0  0  0  0  0  0
    2.3100   -4.5369    0.0000 H   0  0  0  0  0  0  0  0  0  0  0  0
    3.4220   -4.5369    0.0000 H   0  0  0  0  0  0  0  0  0  0  0  0
    4.2690   -4.3100    0.0000 H   0  0  0  0  0  0  0  0  0  0  0  0
    4.0420   -3.4631    0.0000 H   0  0  0  0  0  0  0  0  0  0  0  0
    6.0010   -0.6900    0.0000 H   0  0  0  0  0  0  0  0  0  0  0  0
    4.5981   -3.1200    0.0000 H   0  0  0  0  0  0  0  0  0  0  0  0
  1  9  1  0  0  0  0
  1 12  1  0  0  0  0
  4  2  1  1  0  0  0
  2 11  1  0  0  0  0
  2 24  1  0  0  0  0
  3 16  2  0  0  0  0
  3 17  1  0  0  0  0
  4  5  1  0  0  0  0
  4  6  1  0  0  0  0
  4 18  1  0  0  0  0
  5  7  1  0  0  0  0
  5 19  1  0  0  0  0
  5 20  1  0  0  0  0
  6 21  1  0  0  0  0
  6 22  1  0  0  0  0
  6 23  1  0  0  0  0
  7  8  2  0  0  0  0
  7 25  1  0  0  0  0
  8 10  1  0  0  0  0
  8 27  1  0  0  0  0
  9 14  1  0  0  0  0
  9 15  1  0  0  0  0
  9 26  1  0  0  0  0
 10 13  2  0  0  0  0
 10 16  1  0  0  0  0
 11 28  1  0  0  0  0
 11 29  1  0  0  0  0
 11 30  1  0  0  0  0
 12 13  1  0  0  0  0
 12 17  2  0  0  0  0
 13 31  1  0  0  0  0
 14 32  1  0  0  0  0
 14 33  1  0  0  0  0
 14 34  1  0  0  0  0
 15 35  1  0  0  0  0
 15 36  1  0  0  0  0
 15 37  1  0  0  0  0
 16 38  1  0  0  0  0
 17 39  1  0  0  0  0
M  END
> <PUBCHEM_COMPOUND_CID>
9824145

> <PUBCHEM_COMPOUND_CANONICALIZED>
1

> <PUBCHEM_CACTVS_COMPLEXITY>
228

> <PUBCHEM_CACTVS_HBOND_ACCEPTOR>
3

> <PUBCHEM_CACTVS_HBOND_DONOR>
1

> <PUBCHEM_CACTVS_ROTATABLE_BOND>
6

> <PUBCHEM_CACTVS_SUBSKEYS>
AAADceBzIAAAAAAAAAAAAAAAAAAAAAAAAAAsAAAAAAAAAAABgAAAHgAQAAAADDzhmgY+hpLIFACgAjBnRASCiCAxYCAI2KAvTJgOJuLEsZuHOCjk0BHY6AYwAAAMAAAAAAAAAAAAAAAAAAAAAAAAAAAAAA==

> <PUBCHEM_IUPAC_OPENEYE_NAME>
(E,2S)-5-(5-isopropoxy-3-pyridyl)-N-methyl-pent-4-en-2-amine

> <PUBCHEM_IUPAC_CAS_NAME>
(E,2S)-N-methyl-5-(5-propan-2-yloxy-3-pyridinyl)-4-penten-2-amine

> <PUBCHEM_IUPAC_NAME_MARKUP>
(<I>E</I>,2<I>S</I>)-<I>N</I>-methyl-5-(5-propan-2-yloxypyridin-3-yl)pent-4-en-2-amine

> <PUBCHEM_IUPAC_NAME>
(E,2S)-N-methyl-5-(5-propan-2-yloxypyridin-3-yl)pent-4-en-2-amine

> <PUBCHEM_IUPAC_SYSTEMATIC_NAME>
(E,2S)-N-methyl-5-(5-propan-2-yloxypyridin-3-yl)pent-4-en-2-amine

> <PUBCHEM_IUPAC_TRADITIONAL_NAME>
[(E,1S)-4-(5-isopropoxy-3-pyridyl)-1-methyl-but-3-enyl]-methyl-amine

> <PUBCHEM_IUPAC_INCHI>
InChI=1S/C14H22N2O/c1-11(2)17-14-8-13(9-16-10-14)7-5-6-12(3)15-4/h5,7-12,15H,6H2,1-4H3/b7-5+/t12-/m0/s1

> <PUBCHEM_IUPAC_INCHIKEY>
RPCVIAXDAUMJJP-PZBABLGHSA-N

> <PUBCHEM_XLOGP3_AA>
2.5

> <PUBCHEM_EXACT_MASS>
234.173213330

> <PUBCHEM_MOLECULAR_FORMULA>
C14H22N2O

> <PUBCHEM_MOLECULAR_WEIGHT>
234.34

> <PUBCHEM_SMILES>
C[C@@H](C/C=C/C1=CC(=CN=C1)OC(C)C)NC

> <PUBCHEM_OPENEYE_CAN_SMILES>
CC(C)OC1=CN=CC(=C1)C=CCC(C)NC

> <PUBCHEM_OPENEYE_ISO_SMILES>
C[C@@H](C/C=C/C1=CC(=CN=C1)OC(C)C)NC

> <PUBCHEM_CACTVS_TPSA>
34.2

> <PUBCHEM_MONOISOTOPIC_WEIGHT>
234.173213330

> <PUBCHEM_TOTAL_CHARGE>
0

> <PUBCHEM_HEAVY_ATOM_COUNT>
17

> <PUBCHEM_ATOM_DEF_STEREO_COUNT>
1

> <PUBCHEM_ATOM_UDEF_STEREO_COUNT>
0

> <PUBCHEM_BOND_DEF_STEREO_COUNT>
1

> <PUBCHEM_BOND_UDEF_STEREO_COUNT>
0

> <PUBCHEM_ISOTOPIC_ATOM_COUNT>
0

> <PUBCHEM_COMPONENT_COUNT>
1

> <PUBCHEM_CACTVS_TAUTO_COUNT>
-1

> <PUBCHEM_COORDINATE_TYPE>
1
5
255

> <PUBCHEM_BONDANNOTATIONS>
10  13  8
10  16  8
12  13  8
12  17  8
4  2  5
3  16  8
3  17  8

$$$$
